*  -------------------------------------- *
* Defining the default unit for both length and area
*.SCALE meter
*  -------------------------------------- *
.option scale=1

.subckt AND2_X0_18_SVT_WB A B Q VDD VSS
*.PININFO A:I B:I Q:O VDD:B VSS:B
M0 net_0 A Q_neg VSS N_ISO W=0.42e-06 L=0.18e-06
M1 VSS B net_0 VSS N_ISO W=0.42e-06 L=0.18e-06
M2 Q Q_neg VSS VSS N_ISO W=0.42e-06 L=0.18e-06
M3 Q_neg A VDD VDD P_ISO W=0.42e-06 L=0.18e-06
M4 VDD B Q_neg VDD P_ISO W=0.42e-06 L=0.18e-06
M5 Q Q_neg VDD VDD P_ISO W=0.42e-06 L=0.18e-06
.ends

.subckt AND2_X1_18_SVT_WB A B Q VDD VSS
*.PININFO A:I B:I Q:O VDD:B VSS:B
M0 net_0 A Q_neg VSS N_ISO W=0.42e-06 L=0.18e-06
M1 VSS B net_0 VSS N_ISO W=0.42e-06 L=0.18e-06
M2 Q Q_neg VSS VSS N_ISO W=0.525e-06 L=0.18e-06
M3 Q_neg A VDD VDD P_ISO W=0.42e-06 L=0.18e-06
M4 VDD B Q_neg VDD P_ISO W=0.42e-06 L=0.18e-06
M5 Q Q_neg VDD VDD P_ISO W=0.575e-06 L=0.18e-06
.ends

.subckt AND2_X12_18_SVT_WB A B Q VDD VSS
*.PININFO A:I B:I Q:O VDD:B VSS:B
M0 VSS B net_000 VSS N_ISO W=1.05e-06 L=0.18e-06
M1 net_001 A net_000 VSS N_ISO W=1.05e-06 L=0.18e-06
M2 net_001 A net_002 VSS N_ISO W=1.05e-06 L=0.18e-06
M3 VSS B net_002 VSS N_ISO W=1.05e-06 L=0.18e-06
M4 VSS net_001 Q VSS N_ISO W=1.05e-06 L=0.18e-06
M5 VSS net_001 Q VSS N_ISO W=1.05e-06 L=0.18e-06
M6 VSS net_001 Q VSS N_ISO W=1.05e-06 L=0.18e-06
M7 VSS net_001 Q VSS N_ISO W=1.05e-06 L=0.18e-06
M8 VSS net_001 Q VSS N_ISO W=1.05e-06 L=0.18e-06
M9 VSS net_001 Q VSS N_ISO W=1.05e-06 L=0.18e-06
M10 VDD B net_001 VDD P_ISO W=1.15e-06 L=0.18e-06
M11 VDD A net_001 VDD P_ISO W=1.15e-06 L=0.18e-06
M12 VDD A net_001 VDD P_ISO W=1.15e-06 L=0.18e-06
M13 VDD B net_001 VDD P_ISO W=1.15e-06 L=0.18e-06
M14 VDD net_001 Q VDD P_ISO W=1.15e-06 L=0.18e-06
M15 VDD net_001 Q VDD P_ISO W=1.15e-06 L=0.18e-06
M16 VDD net_001 Q VDD P_ISO W=1.15e-06 L=0.18e-06
M17 VDD net_001 Q VDD P_ISO W=1.15e-06 L=0.18e-06
M18 VDD net_001 Q VDD P_ISO W=1.15e-06 L=0.18e-06
M19 VDD net_001 Q VDD P_ISO W=1.15e-06 L=0.18e-06
.ends

.subckt AND2_X2_18_SVT_WB A B Q VDD VSS
*.PININFO A:I B:I Q:O VDD:B VSS:B
M0 net_000 A net_001 VSS N_ISO W=0.525e-06 L=0.18e-06
M1 VSS B net_001 VSS N_ISO W=0.525e-06 L=0.18e-06
M2 VSS net_000 Q VSS N_ISO W=1.05e-06 L=0.18e-06
M3 VDD A net_000 VDD P_ISO W=0.575e-06 L=0.18e-06
M4 net_000 B VDD VDD P_ISO W=0.575e-06 L=0.18e-06
M5 VDD net_000 Q VDD P_ISO W=1.15e-06 L=0.18e-06
.ends

.subckt AND2_X4_18_SVT_WB A B Q VDD VSS
*.PININFO A:I B:I Q:O VDD:B VSS:B
M0 net_0 A Q_neg VSS N_ISO W=1.05e-06 L=0.18e-06
M1 VSS B net_0 VSS N_ISO W=1.05e-06 L=0.18e-06
M2 Q Q_neg VSS VSS N_ISO W=1.05e-06 L=0.18e-06
M3 VSS Q_neg Q VSS N_ISO W=1.05e-06 L=0.18e-06
M4 Q_neg A VDD VDD P_ISO W=1.15e-06 L=0.18e-06
M5 VDD B Q_neg VDD P_ISO W=1.15e-06 L=0.18e-06
M6 Q Q_neg VDD VDD P_ISO W=1.15e-06 L=0.18e-06
M7 VDD Q_neg Q VDD P_ISO W=1.15e-06 L=0.18e-06
.ends

.subckt AND2_X6_18_SVT_WB A B Q VDD VSS
*.PININFO A:I B:I Q:O VDD:B VSS:B
M0 net_000 A net_001 VSS N_ISO W=1.05e-06 L=0.18e-06
M1 VSS B net_001 VSS N_ISO W=1.05e-06 L=0.18e-06
M2 VSS net_000 Q VSS N_ISO W=1.05e-06 L=0.18e-06
M3 VSS net_000 Q VSS N_ISO W=1.05e-06 L=0.18e-06
M4 VSS net_000 Q VSS N_ISO W=1.05e-06 L=0.18e-06
M5 VDD A net_000 VDD P_ISO W=1.15e-06 L=0.18e-06
M6 VDD B net_000 VDD P_ISO W=1.15e-06 L=0.18e-06
M7 VDD net_000 Q VDD P_ISO W=1.15e-06 L=0.18e-06
M8 VDD net_000 Q VDD P_ISO W=1.15e-06 L=0.18e-06
M9 VDD net_000 Q VDD P_ISO W=1.15e-06 L=0.18e-06
.ends

.subckt AND2_X8_18_SVT_WB A B Q VDD VSS
*.PININFO A:I B:I Q:O VDD:B VSS:B
M0 VSS B net_000 VSS N_ISO W=1.05e-06 L=0.18e-06
M1 net_001 A net_000 VSS N_ISO W=1.05e-06 L=0.18e-06
M2 net_001 A net_002 VSS N_ISO W=1.05e-06 L=0.18e-06
M3 VSS B net_002 VSS N_ISO W=1.05e-06 L=0.18e-06
M4 VSS net_001 Q VSS N_ISO W=1.05e-06 L=0.18e-06
M5 VSS net_001 Q VSS N_ISO W=1.05e-06 L=0.18e-06
M6 VSS net_001 Q VSS N_ISO W=1.05e-06 L=0.18e-06
M7 VSS net_001 Q VSS N_ISO W=1.05e-06 L=0.18e-06
M8 VDD B net_001 VDD P_ISO W=1.15e-06 L=0.18e-06
M9 VDD A net_001 VDD P_ISO W=1.15e-06 L=0.18e-06
M10 VDD A net_001 VDD P_ISO W=1.15e-06 L=0.18e-06
M11 VDD B net_001 VDD P_ISO W=1.15e-06 L=0.18e-06
M12 VDD net_001 Q VDD P_ISO W=1.15e-06 L=0.18e-06
M13 VDD net_001 Q VDD P_ISO W=1.15e-06 L=0.18e-06
M14 VDD net_001 Q VDD P_ISO W=1.15e-06 L=0.18e-06
M15 VDD net_001 Q VDD P_ISO W=1.15e-06 L=0.18e-06
.ends

.subckt AND3_X0_18_SVT_WB A B C Q VDD VSS
*.PININFO A:I B:I C:I Q:O VDD:B VSS:B
M0 net_001 A net_000 VSS N_ISO W=0.42e-06 L=0.18e-06
M1 net_001 B net_002 VSS N_ISO W=0.42e-06 L=0.18e-06
M2 VSS C net_002 VSS N_ISO W=0.42e-06 L=0.18e-06
M3 VSS net_000 Q VSS N_ISO W=0.42e-06 L=0.18e-06
M4 VDD A net_000 VDD P_ISO W=0.42e-06 L=0.18e-06
M5 VDD B net_000 VDD P_ISO W=0.42e-06 L=0.18e-06
M6 VDD C net_000 VDD P_ISO W=0.42e-06 L=0.18e-06
M7 VDD net_000 Q VDD P_ISO W=0.42e-06 L=0.18e-06
.ends

.subckt AND3_X1_18_SVT_WB A B C Q VDD VSS
*.PININFO A:I B:I C:I Q:O VDD:B VSS:B
M0 net_0 A Q_neg VSS N_ISO W=0.42e-06 L=0.18e-06
M1 net_1 B net_0 VSS N_ISO W=0.42e-06 L=0.18e-06
M2 VSS C net_1 VSS N_ISO W=0.42e-06 L=0.18e-06
M3 Q Q_neg VSS VSS N_ISO W=0.525e-06 L=0.18e-06
M4 VDD A Q_neg VDD P_ISO W=0.42e-06 L=0.18e-06
M5 Q_neg B VDD VDD P_ISO W=0.42e-06 L=0.18e-06
M6 VDD C Q_neg VDD P_ISO W=0.42e-06 L=0.18e-06
M7 Q Q_neg VDD VDD P_ISO W=0.575e-06 L=0.18e-06
.ends

.subckt AND3_X12_18_SVT_WB A B C Q VDD VSS
*.PININFO A:I B:I C:I Q:O VDD:B VSS:B
M0 VSS C net_000 VSS N_ISO W=1.05e-06 L=0.18e-06
M1 net_001 B net_000 VSS N_ISO W=1.05e-06 L=0.18e-06
M2 net_001 A net_002 VSS N_ISO W=1.05e-06 L=0.18e-06
M3 net_002 A net_003 VSS N_ISO W=1.05e-06 L=0.18e-06
M4 net_004 B net_003 VSS N_ISO W=1.05e-06 L=0.18e-06
M5 VSS C net_004 VSS N_ISO W=1.05e-06 L=0.18e-06
M6 VSS net_002 Q VSS N_ISO W=1.05e-06 L=0.18e-06
M7 VSS net_002 Q VSS N_ISO W=1.05e-06 L=0.18e-06
M8 Q net_002 VSS VSS N_ISO W=1.05e-06 L=0.18e-06
M9 VSS net_002 Q VSS N_ISO W=1.05e-06 L=0.18e-06
M10 VSS net_002 Q VSS N_ISO W=1.05e-06 L=0.18e-06
M11 VSS net_002 Q VSS N_ISO W=1.05e-06 L=0.18e-06
M12 VDD C net_002 VDD P_ISO W=1.15e-06 L=0.18e-06
M13 VDD B net_002 VDD P_ISO W=1.15e-06 L=0.18e-06
M14 VDD A net_002 VDD P_ISO W=1.15e-06 L=0.18e-06
M15 VDD A net_002 VDD P_ISO W=1.15e-06 L=0.18e-06
M16 VDD B net_002 VDD P_ISO W=1.15e-06 L=0.18e-06
M17 VDD C net_002 VDD P_ISO W=1.15e-06 L=0.18e-06
M18 VDD net_002 Q VDD P_ISO W=1.15e-06 L=0.18e-06
M19 VDD net_002 Q VDD P_ISO W=1.15e-06 L=0.18e-06
M20 VDD net_002 Q VDD P_ISO W=1.15e-06 L=0.18e-06
M21 VDD net_002 Q VDD P_ISO W=1.15e-06 L=0.18e-06
M22 VDD net_002 Q VDD P_ISO W=1.15e-06 L=0.18e-06
M23 VDD net_002 Q VDD P_ISO W=1.15e-06 L=0.18e-06
.ends

.subckt AND3_X2_18_SVT_WB A B C Q VDD VSS
*.PININFO A:I B:I C:I Q:O VDD:B VSS:B
M0 net_0 A Q_neg VSS N_ISO W=0.525e-06 L=0.18e-06
M1 net_1 B net_0 VSS N_ISO W=0.525e-06 L=0.18e-06
M2 VSS C net_1 VSS N_ISO W=0.525e-06 L=0.18e-06
M3 Q Q_neg VSS VSS N_ISO W=1.05e-06 L=0.18e-06
M4 VDD A Q_neg VDD P_ISO W=0.575e-06 L=0.18e-06
M5 Q_neg B VDD VDD P_ISO W=0.575e-06 L=0.18e-06
M6 VDD C Q_neg VDD P_ISO W=0.575e-06 L=0.18e-06
M7 Q Q_neg VDD VDD P_ISO W=1.15e-06 L=0.18e-06
.ends

.subckt AND3_X4_18_SVT_WB A B C Q VDD VSS
*.PININFO A:I B:I C:I Q:O VDD:B VSS:B
M0 net_001 A net_000 VSS N_ISO W=1.05e-06 L=0.18e-06
M1 net_001 B net_002 VSS N_ISO W=1.05e-06 L=0.18e-06
M2 VSS C net_002 VSS N_ISO W=1.05e-06 L=0.18e-06
M3 VSS net_000 Q VSS N_ISO W=1.05e-06 L=0.18e-06
M4 VSS net_000 Q VSS N_ISO W=1.05e-06 L=0.18e-06
M5 VDD A net_000 VDD P_ISO W=1.15e-06 L=0.18e-06
M6 VDD B net_000 VDD P_ISO W=1.15e-06 L=0.18e-06
M7 VDD C net_000 VDD P_ISO W=1.15e-06 L=0.18e-06
M8 VDD net_000 Q VDD P_ISO W=1.15e-06 L=0.18e-06
M9 VDD net_000 Q VDD P_ISO W=1.15e-06 L=0.18e-06
.ends

.subckt AND3_X6_18_SVT_WB A B C Q VDD VSS
*.PININFO A:I B:I C:I Q:O VDD:B VSS:B
M0 net_000 A net_001 VSS N_ISO W=1.05e-06 L=0.18e-06
M1 net_002 B net_001 VSS N_ISO W=1.05e-06 L=0.18e-06
M2 VSS C net_002 VSS N_ISO W=1.05e-06 L=0.18e-06
M3 VSS net_000 Q VSS N_ISO W=1.05e-06 L=0.18e-06
M4 VSS net_000 Q VSS N_ISO W=1.05e-06 L=0.18e-06
M5 VSS net_000 Q VSS N_ISO W=1.05e-06 L=0.18e-06
M6 VDD A net_000 VDD P_ISO W=1.15e-06 L=0.18e-06
M7 VDD B net_000 VDD P_ISO W=1.15e-06 L=0.18e-06
M8 VDD C net_000 VDD P_ISO W=1.15e-06 L=0.18e-06
M9 VDD net_000 Q VDD P_ISO W=1.15e-06 L=0.18e-06
M10 VDD net_000 Q VDD P_ISO W=1.15e-06 L=0.18e-06
M11 VDD net_000 Q VDD P_ISO W=1.15e-06 L=0.18e-06
.ends

.subckt AND3_X8_18_SVT_WB A B C Q VDD VSS
*.PININFO A:I B:I C:I Q:O VDD:B VSS:B
M0 VSS C net_000 VSS N_ISO W=1.05e-06 L=0.18e-06
M1 net_001 B net_000 VSS N_ISO W=1.05e-06 L=0.18e-06
M2 net_001 A net_002 VSS N_ISO W=1.05e-06 L=0.18e-06
M3 net_002 A net_003 VSS N_ISO W=1.05e-06 L=0.18e-06
M4 net_003 B net_004 VSS N_ISO W=1.05e-06 L=0.18e-06
M5 VSS C net_004 VSS N_ISO W=1.05e-06 L=0.18e-06
M6 VSS net_002 Q VSS N_ISO W=1.05e-06 L=0.18e-06
M7 VSS net_002 Q VSS N_ISO W=1.05e-06 L=0.18e-06
M8 VSS net_002 Q VSS N_ISO W=1.05e-06 L=0.18e-06
M9 VSS net_002 Q VSS N_ISO W=1.05e-06 L=0.18e-06
M10 VDD C net_002 VDD P_ISO W=1.15e-06 L=0.18e-06
M11 VDD B net_002 VDD P_ISO W=1.15e-06 L=0.18e-06
M12 VDD A net_002 VDD P_ISO W=1.15e-06 L=0.18e-06
M13 VDD A net_002 VDD P_ISO W=1.15e-06 L=0.18e-06
M14 VDD B net_002 VDD P_ISO W=1.15e-06 L=0.18e-06
M15 VDD C net_002 VDD P_ISO W=1.15e-06 L=0.18e-06
M16 VDD net_002 Q VDD P_ISO W=1.15e-06 L=0.18e-06
M17 VDD net_002 Q VDD P_ISO W=1.15e-06 L=0.18e-06
M18 VDD net_002 Q VDD P_ISO W=1.15e-06 L=0.18e-06
M19 VDD net_002 Q VDD P_ISO W=1.15e-06 L=0.18e-06
.ends

.subckt AND4_X0_18_SVT_WB A B C D Q VDD VSS
*.PININFO A:I B:I C:I D:I Q:O VDD:B VSS:B
M0 net_0 A Q_neg VSS N_ISO W=0.42e-06 L=0.18e-06
M1 net_1 B net_0 VSS N_ISO W=0.42e-06 L=0.18e-06
M2 net_2 C net_1 VSS N_ISO W=0.42e-06 L=0.18e-06
M3 VSS D net_2 VSS N_ISO W=0.42e-06 L=0.18e-06
M4 Q Q_neg VSS VSS N_ISO W=0.42e-06 L=0.18e-06
M5 Q_neg A VDD VDD P_ISO W=0.42e-06 L=0.18e-06
M6 VDD B Q_neg VDD P_ISO W=0.42e-06 L=0.18e-06
M7 Q_neg C VDD VDD P_ISO W=0.42e-06 L=0.18e-06
M8 VDD D Q_neg VDD P_ISO W=0.42e-06 L=0.18e-06
M9 Q Q_neg VDD VDD P_ISO W=0.42e-06 L=0.18e-06
.ends

.subckt AND4_X1_18_SVT_WB A B C D Q VDD VSS
*.PININFO A:I B:I C:I D:I Q:O VDD:B VSS:B
M0 net_0 A Q_neg VSS N_ISO W=0.42e-06 L=0.18e-06
M1 net_1 B net_0 VSS N_ISO W=0.42e-06 L=0.18e-06
M2 net_2 C net_1 VSS N_ISO W=0.42e-06 L=0.18e-06
M3 VSS D net_2 VSS N_ISO W=0.42e-06 L=0.18e-06
M4 Q Q_neg VSS VSS N_ISO W=0.525e-06 L=0.18e-06
M5 Q_neg A VDD VDD P_ISO W=0.42e-06 L=0.18e-06
M6 VDD B Q_neg VDD P_ISO W=0.42e-06 L=0.18e-06
M7 Q_neg C VDD VDD P_ISO W=0.42e-06 L=0.18e-06
M8 VDD D Q_neg VDD P_ISO W=0.42e-06 L=0.18e-06
M9 Q Q_neg VDD VDD P_ISO W=0.575e-06 L=0.18e-06
.ends

.subckt AND4_X12_18_SVT_WB A B C D Q VDD VSS
*.PININFO A:I B:I C:I D:I Q:O VDD:B VSS:B
M0 VSS D net_000 VSS N_ISO W=1.05e-06 L=0.18e-06
M1 net_001 C net_000 VSS N_ISO W=1.05e-06 L=0.18e-06
M2 net_002 B net_001 VSS N_ISO W=1.05e-06 L=0.18e-06
M3 net_003 A net_002 VSS N_ISO W=1.05e-06 L=0.18e-06
M4 net_003 A net_004 VSS N_ISO W=1.05e-06 L=0.18e-06
M5 net_005 B net_004 VSS N_ISO W=1.05e-06 L=0.18e-06
M6 net_005 C net_006 VSS N_ISO W=1.05e-06 L=0.18e-06
M7 VSS D net_006 VSS N_ISO W=1.05e-06 L=0.18e-06
M8 Q net_003 VSS VSS N_ISO W=1.05e-06 L=0.18e-06
M9 VSS net_003 Q VSS N_ISO W=1.05e-06 L=0.18e-06
M10 Q net_003 VSS VSS N_ISO W=1.05e-06 L=0.18e-06
M11 VSS net_003 Q VSS N_ISO W=1.05e-06 L=0.18e-06
M12 VSS net_003 Q VSS N_ISO W=1.05e-06 L=0.18e-06
M13 VSS net_003 Q VSS N_ISO W=1.05e-06 L=0.18e-06
M14 VDD D net_003 VDD P_ISO W=1.15e-06 L=0.18e-06
M15 VDD C net_003 VDD P_ISO W=1.15e-06 L=0.18e-06
M16 VDD B net_003 VDD P_ISO W=1.15e-06 L=0.18e-06
M17 VDD A net_003 VDD P_ISO W=1.15e-06 L=0.18e-06
M18 VDD A net_003 VDD P_ISO W=1.15e-06 L=0.18e-06
M19 VDD B net_003 VDD P_ISO W=1.15e-06 L=0.18e-06
M20 VDD C net_003 VDD P_ISO W=1.15e-06 L=0.18e-06
M21 VDD D net_003 VDD P_ISO W=1.15e-06 L=0.18e-06
M22 VDD net_003 Q VDD P_ISO W=1.15e-06 L=0.18e-06
M23 VDD net_003 Q VDD P_ISO W=1.15e-06 L=0.18e-06
M24 VDD net_003 Q VDD P_ISO W=1.15e-06 L=0.18e-06
M25 VDD net_003 Q VDD P_ISO W=1.15e-06 L=0.18e-06
M26 VDD net_003 Q VDD P_ISO W=1.15e-06 L=0.18e-06
M27 VDD net_003 Q VDD P_ISO W=1.15e-06 L=0.18e-06
.ends

.subckt AND4_X2_18_SVT_WB A B C D Q VDD VSS
*.PININFO A:I B:I C:I D:I Q:O VDD:B VSS:B
M0 net_0 A Q_neg VSS N_ISO W=0.525e-06 L=0.18e-06
M1 net_1 B net_0 VSS N_ISO W=0.525e-06 L=0.18e-06
M2 net_2 C net_1 VSS N_ISO W=0.525e-06 L=0.18e-06
M3 VSS D net_2 VSS N_ISO W=0.525e-06 L=0.18e-06
M4 Q Q_neg VSS VSS N_ISO W=1.05e-06 L=0.18e-06
M5 Q_neg A VDD VDD P_ISO W=0.575e-06 L=0.18e-06
M6 VDD B Q_neg VDD P_ISO W=0.575e-06 L=0.18e-06
M7 Q_neg C VDD VDD P_ISO W=0.575e-06 L=0.18e-06
M8 VDD D Q_neg VDD P_ISO W=0.575e-06 L=0.18e-06
M9 Q Q_neg VDD VDD P_ISO W=1.15e-06 L=0.18e-06
.ends

.subckt AND4_X4_18_SVT_WB A B C D Q VDD VSS
*.PININFO A:I B:I C:I D:I Q:O VDD:B VSS:B
M0 net_000 A net_001 VSS N_ISO W=1.05e-06 L=0.18e-06
M1 net_002 B net_001 VSS N_ISO W=1.05e-06 L=0.18e-06
M2 net_002 C net_003 VSS N_ISO W=1.05e-06 L=0.18e-06
M3 VSS D net_003 VSS N_ISO W=1.05e-06 L=0.18e-06
M4 VSS net_000 Q VSS N_ISO W=1.05e-06 L=0.18e-06
M5 VSS net_000 Q VSS N_ISO W=1.05e-06 L=0.18e-06
M6 VDD A net_000 VDD P_ISO W=1.15e-06 L=0.18e-06
M7 VDD B net_000 VDD P_ISO W=1.15e-06 L=0.18e-06
M8 VDD C net_000 VDD P_ISO W=1.15e-06 L=0.18e-06
M9 VDD D net_000 VDD P_ISO W=1.15e-06 L=0.18e-06
M10 VDD net_000 Q VDD P_ISO W=1.15e-06 L=0.18e-06
M11 VDD net_000 Q VDD P_ISO W=1.15e-06 L=0.18e-06
.ends

.subckt AND4_X6_18_SVT_WB A B C D Q VDD VSS
*.PININFO A:I B:I C:I D:I Q:O VDD:B VSS:B
M0 net_0 A Q_neg VSS N_ISO W=1.05e-06 L=0.18e-06
M1 net_1 B net_0 VSS N_ISO W=1.05e-06 L=0.18e-06
M2 net_2 C net_1 VSS N_ISO W=1.05e-06 L=0.18e-06
M3 VSS D net_2 VSS N_ISO W=1.05e-06 L=0.18e-06
M4 Q Q_neg VSS VSS N_ISO W=1.05e-06 L=0.18e-06
M5 VSS Q_neg Q VSS N_ISO W=1.05e-06 L=0.18e-06
M6 Q Q_neg VSS VSS N_ISO W=1.05e-06 L=0.18e-06
M7 Q_neg A VDD VDD P_ISO W=1.15e-06 L=0.18e-06
M8 VDD B Q_neg VDD P_ISO W=1.15e-06 L=0.18e-06
M9 Q_neg C VDD VDD P_ISO W=1.15e-06 L=0.18e-06
M10 VDD D Q_neg VDD P_ISO W=1.15e-06 L=0.18e-06
M11 Q Q_neg VDD VDD P_ISO W=1.15e-06 L=0.18e-06
M12 VDD Q_neg Q VDD P_ISO W=1.15e-06 L=0.18e-06
M13 Q Q_neg VDD VDD P_ISO W=1.15e-06 L=0.18e-06
.ends

.subckt AND4_X8_18_SVT_WB A B C D Q VDD VSS
*.PININFO A:I B:I C:I D:I Q:O VDD:B VSS:B
M0 net_2_1 D VSS VSS N_ISO W=1.05e-06 L=0.18e-06
M1 net_1_1 C net_2_1 VSS N_ISO W=1.05e-06 L=0.18e-06
M2 net_0_1 B net_1_1 VSS N_ISO W=1.05e-06 L=0.18e-06
M3 Q_neg A net_0_1 VSS N_ISO W=1.05e-06 L=0.18e-06
M4 net_0_0 A Q_neg VSS N_ISO W=1.05e-06 L=0.18e-06
M5 net_1_0 B net_0_0 VSS N_ISO W=1.05e-06 L=0.18e-06
M6 net_2_0 C net_1_0 VSS N_ISO W=1.05e-06 L=0.18e-06
M7 VSS D net_2_0 VSS N_ISO W=1.05e-06 L=0.18e-06
M8 Q Q_neg VSS VSS N_ISO W=1.05e-06 L=0.18e-06
M9 VSS Q_neg Q VSS N_ISO W=1.05e-06 L=0.18e-06
M10 Q Q_neg VSS VSS N_ISO W=1.05e-06 L=0.18e-06
M11 VSS Q_neg Q VSS N_ISO W=1.05e-06 L=0.18e-06
M12 Q_neg D VDD VDD P_ISO W=1.15e-06 L=0.18e-06
M13 VDD C Q_neg VDD P_ISO W=1.15e-06 L=0.18e-06
M14 Q_neg B VDD VDD P_ISO W=1.15e-06 L=0.18e-06
M15 VDD A Q_neg VDD P_ISO W=1.15e-06 L=0.18e-06
M16 Q_neg A VDD VDD P_ISO W=1.15e-06 L=0.18e-06
M17 VDD B Q_neg VDD P_ISO W=1.15e-06 L=0.18e-06
M18 Q_neg C VDD VDD P_ISO W=1.15e-06 L=0.18e-06
M19 VDD D Q_neg VDD P_ISO W=1.15e-06 L=0.18e-06
M20 Q Q_neg VDD VDD P_ISO W=1.15e-06 L=0.18e-06
M21 VDD Q_neg Q VDD P_ISO W=1.15e-06 L=0.18e-06
M22 Q Q_neg VDD VDD P_ISO W=1.15e-06 L=0.18e-06
M23 VDD Q_neg Q VDD P_ISO W=1.15e-06 L=0.18e-06
.ends

.subckt ANTENNA_18_SVT_WB I VDD VSS
*.PININFO I:I VDD:B VSS:B
D0 VSS I DN AREA=0.9156e-12 PJ=3.86e-06
D1 I VDD DP AREA=0.9996e-12 PJ=4.06e-06
.ends

.subckt AO21_X0_18_SVT_WB A0 A1 B0 Q VDD VSS
*.PININFO A0:I A1:I B0:I Q:O VDD:B VSS:B
M0 net_0 A1 VSS VSS N_ISO W=0.42e-06 L=0.18e-06
M1 Q_neg A0 net_0 VSS N_ISO W=0.42e-06 L=0.18e-06
M2 VSS B0 Q_neg VSS N_ISO W=0.42e-06 L=0.18e-06
M3 Q Q_neg VSS VSS N_ISO W=0.42e-06 L=0.18e-06
M4 Q_neg A1 net_1 VDD P_ISO W=0.42e-06 L=0.18e-06
M5 net_1 A0 Q_neg VDD P_ISO W=0.42e-06 L=0.18e-06
M6 VDD B0 net_1 VDD P_ISO W=0.42e-06 L=0.18e-06
M7 Q Q_neg VDD VDD P_ISO W=0.42e-06 L=0.18e-06
.ends

.subckt AO21_X1_18_SVT_WB A0 A1 B0 Q VDD VSS
*.PININFO A0:I A1:I B0:I Q:O VDD:B VSS:B
M0 net_0 A1 VSS VSS N_ISO W=0.42e-06 L=0.18e-06
M1 Q_neg A0 net_0 VSS N_ISO W=0.42e-06 L=0.18e-06
M2 VSS B0 Q_neg VSS N_ISO W=0.42e-06 L=0.18e-06
M3 Q Q_neg VSS VSS N_ISO W=0.525e-06 L=0.18e-06
M4 Q_neg A1 net_1 VDD P_ISO W=0.42e-06 L=0.18e-06
M5 net_1 A0 Q_neg VDD P_ISO W=0.42e-06 L=0.18e-06
M6 VDD B0 net_1 VDD P_ISO W=0.42e-06 L=0.18e-06
M7 Q Q_neg VDD VDD P_ISO W=0.575e-06 L=0.18e-06
.ends

.subckt AO21_X2_18_SVT_WB A0 A1 B0 Q VDD VSS
*.PININFO A0:I A1:I B0:I Q:O VDD:B VSS:B
M0 net_0 A1 VSS VSS N_ISO W=0.525e-06 L=0.18e-06
M1 Q_neg A0 net_0 VSS N_ISO W=0.525e-06 L=0.18e-06
M2 VSS B0 Q_neg VSS N_ISO W=0.525e-06 L=0.18e-06
M3 Q Q_neg VSS VSS N_ISO W=1.05e-06 L=0.18e-06
M4 Q_neg A1 net_1 VDD P_ISO W=0.575e-06 L=0.18e-06
M5 net_1 A0 Q_neg VDD P_ISO W=0.575e-06 L=0.18e-06
M6 VDD B0 net_1 VDD P_ISO W=0.575e-06 L=0.18e-06
M7 Q Q_neg VDD VDD P_ISO W=1.15e-06 L=0.18e-06
.ends

.subckt AO21_X4_18_SVT_WB A0 A1 B0 Q VDD VSS
*.PININFO A0:I A1:I B0:I Q:O VDD:B VSS:B
M0 VSS A1 net_000 VSS N_ISO W=1.05e-06 L=0.18e-06
M1 net_001 A0 net_000 VSS N_ISO W=1.05e-06 L=0.18e-06
M2 VSS B0 net_001 VSS N_ISO W=1.05e-06 L=0.18e-06
M3 VSS net_001 Q VSS N_ISO W=1.05e-06 L=0.18e-06
M4 VSS net_001 Q VSS N_ISO W=1.05e-06 L=0.18e-06
M5 net_001 A1 net_002 VDD P_ISO W=1.15e-06 L=0.18e-06
M6 net_002 A0 net_001 VDD P_ISO W=1.15e-06 L=0.18e-06
M7 VDD B0 net_002 VDD P_ISO W=1.15e-06 L=0.18e-06
M8 VDD net_001 Q VDD P_ISO W=1.15e-06 L=0.18e-06
M9 VDD net_001 Q VDD P_ISO W=1.15e-06 L=0.18e-06
.ends

.subckt AO21_X8_18_SVT_WB A0 A1 B0 Q VDD VSS
*.PININFO A0:I A1:I B0:I Q:O VDD:B VSS:B
M0 Q_neg B0 VSS VSS N_ISO W=1.05e-06 L=0.18e-06
M1 net_0_1 A0 Q_neg VSS N_ISO W=1.05e-06 L=0.18e-06
M2 VSS A1 net_0_1 VSS N_ISO W=1.05e-06 L=0.18e-06
M3 net_0_0 A1 VSS VSS N_ISO W=1.05e-06 L=0.18e-06
M4 Q_neg A0 net_0_0 VSS N_ISO W=1.05e-06 L=0.18e-06
M5 VSS B0 Q_neg VSS N_ISO W=1.05e-06 L=0.18e-06
M6 Q Q_neg VSS VSS N_ISO W=1.05e-06 L=0.18e-06
M7 VSS Q_neg Q VSS N_ISO W=1.05e-06 L=0.18e-06
M8 Q Q_neg VSS VSS N_ISO W=1.05e-06 L=0.18e-06
M9 VSS Q_neg Q VSS N_ISO W=1.05e-06 L=0.18e-06
M10 net_1 B0 VDD VDD P_ISO W=1.15e-06 L=0.18e-06
M11 Q_neg A0 net_1 VDD P_ISO W=1.15e-06 L=0.18e-06
M12 net_1 A1 Q_neg VDD P_ISO W=1.15e-06 L=0.18e-06
M13 Q_neg A1 net_1 VDD P_ISO W=1.15e-06 L=0.18e-06
M14 net_1 A0 Q_neg VDD P_ISO W=1.15e-06 L=0.18e-06
M15 VDD B0 net_1 VDD P_ISO W=1.15e-06 L=0.18e-06
M16 Q Q_neg VDD VDD P_ISO W=1.15e-06 L=0.18e-06
M17 VDD Q_neg Q VDD P_ISO W=1.15e-06 L=0.18e-06
M18 Q Q_neg VDD VDD P_ISO W=1.15e-06 L=0.18e-06
M19 VDD Q_neg Q VDD P_ISO W=1.15e-06 L=0.18e-06
.ends

.subckt AO22_X0_18_SVT_WB A0 A1 B0 B1 Q VDD VSS
*.PININFO A0:I A1:I B0:I B1:I Q:O VDD:B VSS:B
M0 VSS net_001 Q VSS N_ISO W=0.455e-06 L=0.18e-06
M1 VSS B1 net_000 VSS N_ISO W=0.42e-06 L=0.18e-06
M2 net_001 B0 net_000 VSS N_ISO W=0.42e-06 L=0.18e-06
M3 net_001 A0 net_002 VSS N_ISO W=0.42e-06 L=0.18e-06
M4 VSS A1 net_002 VSS N_ISO W=0.42e-06 L=0.18e-06
M5 VDD net_001 Q VDD P_ISO W=0.42e-06 L=0.18e-06
M6 VDD B1 net_003 VDD P_ISO W=0.42e-06 L=0.18e-06
M7 VDD B0 net_003 VDD P_ISO W=0.42e-06 L=0.18e-06
M8 net_003 A0 net_001 VDD P_ISO W=0.42e-06 L=0.18e-06
M9 net_003 A1 net_001 VDD P_ISO W=0.42e-06 L=0.18e-06
.ends

.subckt AO22_X1_18_SVT_WB A0 A1 B0 B1 Q VDD VSS
*.PININFO A0:I A1:I B0:I B1:I Q:O VDD:B VSS:B
M0 net_0 A1 VSS VSS N_ISO W=0.42e-06 L=0.18e-06
M1 Q_neg A0 net_0 VSS N_ISO W=0.42e-06 L=0.18e-06
M2 net_1 B0 Q_neg VSS N_ISO W=0.42e-06 L=0.18e-06
M3 VSS B1 net_1 VSS N_ISO W=0.42e-06 L=0.18e-06
M4 Q Q_neg VSS VSS N_ISO W=0.525e-06 L=0.18e-06
M5 net_2 A1 Q_neg VDD P_ISO W=0.42e-06 L=0.18e-06
M6 Q_neg A0 net_2 VDD P_ISO W=0.42e-06 L=0.18e-06
M7 net_2 B0 VDD VDD P_ISO W=0.42e-06 L=0.18e-06
M8 VDD B1 net_2 VDD P_ISO W=0.42e-06 L=0.18e-06
M9 Q Q_neg VDD VDD P_ISO W=0.575e-06 L=0.18e-06
.ends

.subckt AO22_X2_18_SVT_WB A0 A1 B0 B1 Q VDD VSS
*.PININFO A0:I A1:I B0:I B1:I Q:O VDD:B VSS:B
M0 VSS A1 net_000 VSS N_ISO W=0.525e-06 L=0.18e-06
M1 net_001 A0 net_000 VSS N_ISO W=0.525e-06 L=0.18e-06
M2 net_001 B0 net_002 VSS N_ISO W=0.525e-06 L=0.18e-06
M3 VSS B1 net_002 VSS N_ISO W=0.525e-06 L=0.18e-06
M4 VSS net_001 Q VSS N_ISO W=1.05e-06 L=0.18e-06
M5 net_003 A1 net_001 VDD P_ISO W=0.45e-06 L=0.18e-06
M6 net_003 A0 net_001 VDD P_ISO W=0.45e-06 L=0.18e-06
M7 VDD B0 net_003 VDD P_ISO W=0.575e-06 L=0.18e-06
M8 VDD B1 net_003 VDD P_ISO W=0.575e-06 L=0.18e-06
M9 VDD net_001 Q VDD P_ISO W=1.15e-06 L=0.18e-06
.ends

.subckt AO22_X4_18_SVT_WB A0 A1 B0 B1 Q VDD VSS
*.PININFO A0:I A1:I B0:I B1:I Q:O VDD:B VSS:B
M0 VSS A1 net_000 VSS N_ISO W=1.05e-06 L=0.18e-06
M1 net_001 A0 net_000 VSS N_ISO W=1.05e-06 L=0.18e-06
M2 net_001 B0 net_002 VSS N_ISO W=1.05e-06 L=0.18e-06
M3 VSS B1 net_002 VSS N_ISO W=1.05e-06 L=0.18e-06
M4 VSS net_001 Q VSS N_ISO W=1.05e-06 L=0.18e-06
M5 VSS net_001 Q VSS N_ISO W=1.05e-06 L=0.18e-06
M6 net_003 A1 net_001 VDD P_ISO W=1.15e-06 L=0.18e-06
M7 net_001 A0 net_003 VDD P_ISO W=1.15e-06 L=0.18e-06
M8 VDD B0 net_003 VDD P_ISO W=1.15e-06 L=0.18e-06
M9 VDD B1 net_003 VDD P_ISO W=1.15e-06 L=0.18e-06
M10 VDD net_001 Q VDD P_ISO W=1.15e-06 L=0.18e-06
M11 VDD net_001 Q VDD P_ISO W=1.15e-06 L=0.18e-06
.ends

.subckt AO22_X8_18_SVT_WB A0 A1 B0 B1 Q VDD VSS
*.PININFO A0:I A1:I B0:I B1:I Q:O VDD:B VSS:B
M0 VSS B1 net_000 VSS N_ISO W=1.05e-06 L=0.18e-06
M1 net_001 B0 net_000 VSS N_ISO W=1.05e-06 L=0.18e-06
M2 net_002 B0 net_001 VSS N_ISO W=1.05e-06 L=0.18e-06
M3 VSS B1 net_002 VSS N_ISO W=1.05e-06 L=0.18e-06
M4 VSS A1 net_003 VSS N_ISO W=1.05e-06 L=0.18e-06
M5 net_001 A0 net_003 VSS N_ISO W=1.05e-06 L=0.18e-06
M6 net_001 A0 net_004 VSS N_ISO W=1.05e-06 L=0.18e-06
M7 VSS A1 net_004 VSS N_ISO W=1.05e-06 L=0.18e-06
M8 VSS net_001 Q VSS N_ISO W=1.05e-06 L=0.18e-06
M9 VSS net_001 Q VSS N_ISO W=1.05e-06 L=0.18e-06
M10 VSS net_001 Q VSS N_ISO W=1.05e-06 L=0.18e-06
M11 VSS net_001 Q VSS N_ISO W=1.05e-06 L=0.18e-06
M12 VDD B1 net_005 VDD P_ISO W=1.15e-06 L=0.18e-06
M13 VDD B0 net_005 VDD P_ISO W=1.15e-06 L=0.18e-06
M14 VDD B0 net_005 VDD P_ISO W=1.15e-06 L=0.18e-06
M15 VDD B1 net_005 VDD P_ISO W=1.15e-06 L=0.18e-06
M16 net_001 A1 net_005 VDD P_ISO W=1.15e-06 L=0.18e-06
M17 net_005 A0 net_001 VDD P_ISO W=1.15e-06 L=0.18e-06
M18 net_001 A0 net_005 VDD P_ISO W=1.15e-06 L=0.18e-06
M19 net_001 A1 net_005 VDD P_ISO W=1.15e-06 L=0.18e-06
M20 VDD net_001 Q VDD P_ISO W=1.15e-06 L=0.18e-06
M21 VDD net_001 Q VDD P_ISO W=1.15e-06 L=0.18e-06
M22 VDD net_001 Q VDD P_ISO W=1.15e-06 L=0.18e-06
M23 VDD net_001 Q VDD P_ISO W=1.15e-06 L=0.18e-06
.ends

.subckt AOI211_X0_18_SVT_WB A0 A1 B0 C0 Q VDD VSS
*.PININFO A0:I A1:I B0:I C0:I Q:O VDD:B VSS:B
M0 net_0 A1 VSS VSS N_ISO W=0.42e-06 L=0.18e-06
M1 Q A0 net_0 VSS N_ISO W=0.42e-06 L=0.18e-06
M2 VSS B0 Q VSS N_ISO W=0.42e-06 L=0.18e-06
M3 Q C0 VSS VSS N_ISO W=0.42e-06 L=0.18e-06
M4 VDD A1 net_1 VDD P_ISO W=0.42e-06 L=0.18e-06
M5 net_1 A0 VDD VDD P_ISO W=0.42e-06 L=0.18e-06
M6 net_2 B0 net_1 VDD P_ISO W=0.42e-06 L=0.18e-06
M7 Q C0 net_2 VDD P_ISO W=0.42e-06 L=0.18e-06
.ends

.subckt AOI211_X1_18_SVT_WB A0 A1 B0 C0 Q VDD VSS
*.PININFO A0:I A1:I B0:I C0:I Q:O VDD:B VSS:B
M0 net_0 A1 VSS VSS N_ISO W=0.525e-06 L=0.18e-06
M1 Q A0 net_0 VSS N_ISO W=0.525e-06 L=0.18e-06
M2 VSS B0 Q VSS N_ISO W=0.525e-06 L=0.18e-06
M3 Q C0 VSS VSS N_ISO W=0.525e-06 L=0.18e-06
M4 VDD A1 net_1 VDD P_ISO W=0.575e-06 L=0.18e-06
M5 net_1 A0 VDD VDD P_ISO W=0.575e-06 L=0.18e-06
M6 net_2 B0 net_1 VDD P_ISO W=0.575e-06 L=0.18e-06
M7 Q C0 net_2 VDD P_ISO W=0.575e-06 L=0.18e-06
.ends

.subckt AOI211_X2_18_SVT_WB A0 A1 B0 C0 Q VDD VSS
*.PININFO A0:I A1:I B0:I C0:I Q:O VDD:B VSS:B
M0 net_0 A1 VSS VSS N_ISO W=1.05e-06 L=0.18e-06
M1 Q A0 net_0 VSS N_ISO W=1.05e-06 L=0.18e-06
M2 VSS B0 Q VSS N_ISO W=1.05e-06 L=0.18e-06
M3 Q C0 VSS VSS N_ISO W=1.05e-06 L=0.18e-06
M4 VDD A1 net_1 VDD P_ISO W=0.815e-06 L=0.18e-06
M5 net_1 A0 VDD VDD P_ISO W=1.15e-06 L=0.18e-06
M6 net_2 B0 net_1 VDD P_ISO W=1.15e-06 L=0.18e-06
M7 Q C0 net_2 VDD P_ISO W=1.15e-06 L=0.18e-06
.ends

.subckt AOI211_X4_18_SVT_WB A0 A1 B0 C0 Q VDD VSS
*.PININFO A0:I A1:I B0:I C0:I Q:O VDD:B VSS:B
M0 net_0_0_0 A1 VSS VSS N_ISO W=1.05e-06 L=0.18e-06
M1 Q A0 net_0_0_0 VSS N_ISO W=1.05e-06 L=0.18e-06
M2 net_0_0_1 A0 Q VSS N_ISO W=1.05e-06 L=0.18e-06
M3 VSS A1 net_0_0_1 VSS N_ISO W=1.05e-06 L=0.18e-06
M4 Q B0 VSS VSS N_ISO W=1.05e-06 L=0.18e-06
M5 VSS C0 Q VSS N_ISO W=1.05e-06 L=0.18e-06
M6 Q C0 VSS VSS N_ISO W=1.05e-06 L=0.18e-06
M7 VSS B0 Q VSS N_ISO W=1.05e-06 L=0.18e-06
M8 VDD A1 net_1 VDD P_ISO W=1.15e-06 L=0.18e-06
M9 net_1 A0 VDD VDD P_ISO W=1.15e-06 L=0.18e-06
M10 VDD A0 net_1 VDD P_ISO W=1.15e-06 L=0.18e-06
M11 net_1 A1 VDD VDD P_ISO W=1.15e-06 L=0.18e-06
M12 net_2_0_0 B0 net_1 VDD P_ISO W=1.15e-06 L=0.18e-06
M13 Q C0 net_2_0_0 VDD P_ISO W=1.15e-06 L=0.18e-06
M14 net_2_0_1 C0 Q VDD P_ISO W=1.15e-06 L=0.18e-06
M15 net_1 B0 net_2_0_1 VDD P_ISO W=1.15e-06 L=0.18e-06
.ends

.subckt AOI21_X0_18_SVT_WB A0 A1 B0 Q VDD VSS
*.PININFO A0:I A1:I B0:I Q:O VDD:B VSS:B
M0 net_0 A1 VSS VSS N_ISO W=0.42e-06 L=0.18e-06
M1 Q A0 net_0 VSS N_ISO W=0.42e-06 L=0.18e-06
M2 VSS B0 Q VSS N_ISO W=0.42e-06 L=0.18e-06
M3 VDD A1 net_1 VDD P_ISO W=0.42e-06 L=0.18e-06
M4 net_1 A0 VDD VDD P_ISO W=0.42e-06 L=0.18e-06
M5 Q B0 net_1 VDD P_ISO W=0.42e-06 L=0.18e-06
.ends

.subckt AOI21_X1_18_SVT_WB A0 A1 B0 Q VDD VSS
*.PININFO A0:I A1:I B0:I Q:O VDD:B VSS:B
M0 net_0 A1 VSS VSS N_ISO W=0.565e-06 L=0.18e-06
M1 Q A0 net_0 VSS N_ISO W=0.565e-06 L=0.18e-06
M2 VSS B0 Q VSS N_ISO W=0.565e-06 L=0.18e-06
M3 VDD A1 net_1 VDD P_ISO W=0.615e-06 L=0.18e-06
M4 net_1 A0 VDD VDD P_ISO W=0.615e-06 L=0.18e-06
M5 Q B0 net_1 VDD P_ISO W=0.615e-06 L=0.18e-06
.ends

.subckt AOI21_X2_18_SVT_WB A0 A1 B0 Q VDD VSS
*.PININFO A0:I A1:I B0:I Q:O VDD:B VSS:B
M0 net_0 A1 VSS VSS N_ISO W=1.05e-06 L=0.18e-06
M1 Q A0 net_0 VSS N_ISO W=1.05e-06 L=0.18e-06
M2 VSS B0 Q VSS N_ISO W=1.05e-06 L=0.18e-06
M3 VDD A1 net_1 VDD P_ISO W=1.15e-06 L=0.18e-06
M4 net_1 A0 VDD VDD P_ISO W=1.15e-06 L=0.18e-06
M5 Q B0 net_1 VDD P_ISO W=1.15e-06 L=0.18e-06
.ends

.subckt AOI21_X3_18_SVT_WB A0 A1 B0 Q VDD VSS
*.PININFO A0:I A1:I B0:I Q:O VDD:B VSS:B
M0 net_0_0_1 A1 VSS VSS N_ISO W=0.785e-06 L=0.18e-06
M1 Q A0 net_0_0_1 VSS N_ISO W=0.785e-06 L=0.18e-06
M2 net_0_0_0 A0 Q VSS N_ISO W=0.785e-06 L=0.18e-06
M3 VSS A1 net_0_0_0 VSS N_ISO W=0.785e-06 L=0.18e-06
M4 Q B0 VSS VSS N_ISO W=0.785e-06 L=0.18e-06
M5 VSS B0 Q VSS N_ISO W=0.785e-06 L=0.18e-06
M6 VDD A1 net_1 VDD P_ISO W=0.86e-06 L=0.18e-06
M7 net_1 A0 VDD VDD P_ISO W=0.86e-06 L=0.18e-06
M8 VDD A0 net_1 VDD P_ISO W=0.86e-06 L=0.18e-06
M9 net_1 A1 VDD VDD P_ISO W=0.86e-06 L=0.18e-06
M10 Q B0 net_1 VDD P_ISO W=0.86e-06 L=0.18e-06
M11 net_1 B0 Q VDD P_ISO W=0.86e-06 L=0.18e-06
.ends

.subckt AOI21_X4_18_SVT_WB A0 A1 B0 Q VDD VSS
*.PININFO A0:I A1:I B0:I Q:O VDD:B VSS:B
M0 net_0_1 A1 VSS VSS N_ISO W=1.05e-06 L=0.18e-06
M1 Q A0 net_0_1 VSS N_ISO W=1.05e-06 L=0.18e-06
M2 net_0_0 A0 Q VSS N_ISO W=1.05e-06 L=0.18e-06
M3 VSS A1 net_0_0 VSS N_ISO W=1.05e-06 L=0.18e-06
M4 Q B0 VSS VSS N_ISO W=1.05e-06 L=0.18e-06
M5 VSS B0 Q VSS N_ISO W=1.05e-06 L=0.18e-06
M6 VDD A1 net_1 VDD P_ISO W=1.15e-06 L=0.18e-06
M7 net_1 A0 VDD VDD P_ISO W=1.15e-06 L=0.18e-06
M8 VDD A0 net_1 VDD P_ISO W=1.15e-06 L=0.18e-06
M9 net_1 A1 VDD VDD P_ISO W=1.15e-06 L=0.18e-06
M10 Q B0 net_1 VDD P_ISO W=1.15e-06 L=0.18e-06
M11 net_1 B0 Q VDD P_ISO W=1.15e-06 L=0.18e-06
.ends

.subckt AOI21_X6_18_SVT_WB A0 A1 B0 Q VDD VSS
*.PININFO A0:I A1:I B0:I Q:O VDD:B VSS:B
M0 net_0_0 A1 VSS VSS N_ISO W=1.05e-06 L=0.18e-06
M1 Q A0 net_0_0 VSS N_ISO W=1.05e-06 L=0.18e-06
M2 net_0_1 A0 Q VSS N_ISO W=1.05e-06 L=0.18e-06
M3 VSS A1 net_0_1 VSS N_ISO W=1.05e-06 L=0.18e-06
M4 net_0_2 A1 VSS VSS N_ISO W=1.05e-06 L=0.18e-06
M5 Q A0 net_0_2 VSS N_ISO W=1.05e-06 L=0.18e-06
M6 VSS B0 Q VSS N_ISO W=1.05e-06 L=0.18e-06
M7 Q B0 VSS VSS N_ISO W=1.05e-06 L=0.18e-06
M8 VSS B0 Q VSS N_ISO W=1.05e-06 L=0.18e-06
M9 VDD A1 net_1 VDD P_ISO W=1.15e-06 L=0.18e-06
M10 net_1 A0 VDD VDD P_ISO W=1.15e-06 L=0.18e-06
M11 VDD A0 net_1 VDD P_ISO W=1.15e-06 L=0.18e-06
M12 net_1 A1 VDD VDD P_ISO W=1.15e-06 L=0.18e-06
M13 VDD A1 net_1 VDD P_ISO W=1.15e-06 L=0.18e-06
M14 net_1 A0 VDD VDD P_ISO W=1.15e-06 L=0.18e-06
M15 Q B0 net_1 VDD P_ISO W=1.15e-06 L=0.18e-06
M16 net_1 B0 Q VDD P_ISO W=1.15e-06 L=0.18e-06
M17 Q B0 net_1 VDD P_ISO W=1.15e-06 L=0.18e-06
.ends

.subckt AOI21_X8_18_SVT_WB A0 A1 B0 Q VDD VSS
*.PININFO A0:I A1:I B0:I Q:O VDD:B VSS:B
M0 net_0_3 A1 VSS VSS N_ISO W=1.05e-06 L=0.18e-06
M1 Q A0 net_0_3 VSS N_ISO W=1.05e-06 L=0.18e-06
M2 net_0_2 A0 Q VSS N_ISO W=1.05e-06 L=0.18e-06
M3 VSS A1 net_0_2 VSS N_ISO W=1.05e-06 L=0.18e-06
M4 net_0_1 A1 VSS VSS N_ISO W=1.05e-06 L=0.18e-06
M5 Q A0 net_0_1 VSS N_ISO W=1.05e-06 L=0.18e-06
M6 net_0_0 A0 Q VSS N_ISO W=1.05e-06 L=0.18e-06
M7 VSS A1 net_0_0 VSS N_ISO W=1.05e-06 L=0.18e-06
M8 Q B0 VSS VSS N_ISO W=1.05e-06 L=0.18e-06
M9 VSS B0 Q VSS N_ISO W=1.05e-06 L=0.18e-06
M10 Q B0 VSS VSS N_ISO W=1.05e-06 L=0.18e-06
M11 VSS B0 Q VSS N_ISO W=1.05e-06 L=0.18e-06
M12 VDD A1 net_1 VDD P_ISO W=0.81e-06 L=0.18e-06
M13 net_1 A0 VDD VDD P_ISO W=1.15e-06 L=0.18e-06
M14 VDD A0 net_1 VDD P_ISO W=1.15e-06 L=0.18e-06
M15 net_1 A1 VDD VDD P_ISO W=1.15e-06 L=0.18e-06
M16 VDD A1 net_1 VDD P_ISO W=1.15e-06 L=0.18e-06
M17 net_1 A0 VDD VDD P_ISO W=0.81e-06 L=0.18e-06
M18 VDD A0 net_1 VDD P_ISO W=1.15e-06 L=0.18e-06
M19 net_1 A1 VDD VDD P_ISO W=1.15e-06 L=0.18e-06
M20 Q B0 net_1 VDD P_ISO W=1.15e-06 L=0.18e-06
M21 net_1 B0 Q VDD P_ISO W=1.15e-06 L=0.18e-06
M22 Q B0 net_1 VDD P_ISO W=1.15e-06 L=0.18e-06
M23 net_1 B0 Q VDD P_ISO W=1.15e-06 L=0.18e-06
.ends

.subckt AOI221_X0_18_SVT_WB A0 A1 B0 B1 C0 Q VDD VSS
*.PININFO A0:I A1:I B0:I B1:I C0:I Q:O VDD:B VSS:B
M0 net_1 B1 VSS VSS N_ISO W=0.42e-06 L=0.18e-06
M1 Q B0 net_1 VSS N_ISO W=0.42e-06 L=0.18e-06
M2 VSS C0 Q VSS N_ISO W=0.42e-06 L=0.18e-06
M3 net_0 A1 VSS VSS N_ISO W=0.42e-06 L=0.18e-06
M4 Q A0 net_0 VSS N_ISO W=0.42e-06 L=0.18e-06
M5 VDD B1 net_3 VDD P_ISO W=0.42e-06 L=0.18e-06
M6 net_3 B0 VDD VDD P_ISO W=0.42e-06 L=0.18e-06
M7 net_2 C0 net_3 VDD P_ISO W=0.42e-06 L=0.18e-06
M8 Q A1 net_2 VDD P_ISO W=0.42e-06 L=0.18e-06